25

C 8.702 1.906 24.721 -0.076124 -0.064777 0.17166
C 8.096 0.866 25.444 0.043646 -0.21213 0.19636
C 9.502 1.701 23.546 0.056248 0.12239 0.026783
C 10.089 2.746 22.809 0.056841 0.05944 0.02177
C 9.894 3.985 23.327 -0.22787 -0.036778 0.10164
C 9.143 4.222 24.436 -0.02495 -0.0021538 -0.045796
C 8.561 3.236 25.176 -0.089838 -0.056202 0.16738
N 10.28 5.133 22.905 0.055997 0.0031354 -0.68375
N 9.073 5.487 24.759 0.0561 0.096473 -0.1516
C 9.789 5.975 23.763 -0.071985 -0.36877 0.033354
C 10.024 7.33 23.661 0.048822 -0.11948 -0.16514
F 9.723 0.474 23.074 -0.05677 -0.036747 -0.027411
N 7.622 1.129 26.63 0.060876 0.033711 0.27934
N 7.969 -0.341 24.955 -0.080707 -0.28472 -0.16412
C 9.607 8.195 24.673 -0.017983 -0.071572 -0.0053728
C 9.842 9.542 24.587 0.01267 -0.030305 0.010247
C 10.43 10.058 23.443 -0.012585 -0.0039612 0.01329
C 10.856 9.22 22.407 0.15183 0.013671 -0.057293
O 11.457 9.7 21.255 -0.15402 -0.12364 -0.087263
C 10.619 7.869 22.509 0.29299 -0.15144 -0.080908
O 11.036 7.053 21.474 0.096646 -0.21568 -0.38637
C 12.269 10.858 21.478 -0.081275 -0.19013 0.0016068
C 12.855 11.354 20.157 0.019901 -0.080568 -0.017674
C 14.152 10.607 19.824 -0.07134 -0.10134 0.01142
C 11.826 11.215 19.047 0.031228 -0.074867 0.021743