23

C 23.877 58.804 49.916 0.16411 -0.028875 0.074453
C 24.087 57.805 51.038 0.19071 -0.023488 -0.085078
C 22.394 58.677 49.589 0.12401 -0.14534 -0.21461
C 22.102 57.775 48.385 0.051446 -0.17374 -0.11438
C 22.741 57.767 51.736 0.15146 -0.15994 -0.0374
N 22.473 56.396 52.23 -0.13424 -0.42081 0.1249
O 21.763 58.142 50.762 -0.077616 -0.045534 0.01806
O 24.122 60.127 50.408 -0.16004 -0.14711 0.14579
O 25.151 58.153 51.932 0.53622 0.012299 0.19142
O 22.953 56.627 48.343 -0.06862 -0.35958 0.088989
P 22.506 55.282 47.542 -0.079547 0.33091 -0.11815
O 23.791 54.512 47.437 -0.39868 -0.26881 0.13487
O 21.469 54.647 48.427 0.18316 -0.32888 -0.003826
O 21.92 55.832 46.255 0.074798 -0.29718 0.068199
C 21.608 56.242 55.765 -0.2589 -0.086249 0.16404
C 22.52 55.258 51.51 0.35614 0.090999 -0.095252
C 21.976 54.637 53.528 -0.11158 -0.30815 0.25551
C 22.132 56.106 53.485 -0.020169 0.092221 -0.040621
C 21.602 54.05 54.828 -0.10844 -0.6036 0.017379
N 21.945 56.84 54.612 0.25994 0.071457 -0.043816
N 21.442 54.911 55.864 0.25862 -0.31617 -0.071803
N 22.224 54.181 52.283 0.2896 -0.075298 0.068443
N 21.429 52.702 54.977 0.25908 -0.91469 0.0095955`