35

C 47.242 9.699 0.57 0.026364 0.18256 0.11309
N 48.554 9.115 0.602 0.013718 0.2661 -0.040088
C 46.124 9.036 0.056 -0.01345 0.0046845 -0.03033
C 44.878 9.667 0.057 0.097084 -0.052579 -0.011101
C 44.728 10.963 0.567 0.01941 -0.049603 -0.046999
C 45.838 11.651 1.087 -0.0067712 0.11287 -0.0097546
C 45.712 13.019 1.606 -0.030109 0.050887 0.10414
C 47.087 11.005 1.08 0.012587 0.0041216 0.025324
C 49.554 9.519 -0.299 0.0038428 0.080469 -0.063031
C 49.225 10.542 -1.341 0.0043429 -0.044037 0.023823
O 50.698 9.063 -0.296 -0.029838 -0.022414 0.19878
C 48.873 8.087 1.643 0.0063513 0.134 0.14726
C 48.559 12.416 -3.34 -0.0089525 -0.037173 0.0022074
C 47.977 11.146 -3.345 -0.025229 -0.085861 -0.02057
C 48.305 10.214 -2.352 -0.010592 -0.070186 0.02198
C 49.807 11.816 -1.341 0.011224 -0.0044027 0.091519
C 49.475 12.743 -2.336 0.045165 0.036603 0.074007
C 48.131 6.761 1.428 0.0042149 -0.0031667 0.1607
C 48.61 5.715 2.425 -0.10172 -0.0035266 0.19739
C 48.307 6.191 3.842 -0.021995 -0.0081717 -0.017701
C 49.025 7.509 4.134 -0.017273 -0.047589 -0.039997
C 48.735 8.594 3.087 0.12389 -0.10313 0.1129
C 46.297 13.64 2.697 -0.16585 -0.033232 0.42408
C 45.919 15.002 2.862 -0.2664 -0.083494 0.55554
O 46.351 15.808 3.884 -0.30308 0.37944 0.31835
C 45.022 15.37 1.874 -0.091254 -0.12582 0.16179
C 44.341 16.758 1.649 0.27606 -0.11516 -0.26017
S 44.683 14.106 0.768 0.29281 -0.024064 -0.29966
Br 47.509 12.818 3.906 0.13393 0.31242 0.077977
C 47.549 16.559 3.64 -0.51017 -0.15098 0.28034
C 47.872 17.279 4.965 -0.59598 -0.36466 -0.051352
O 48.977 17.87 5.02 0.019914 0.02797 0.17583
O 47.002 17.199 5.878 -0.12289 -0.18455 0.023352
O 43.831 16.897 0.499 -0.082775 0.088828 0.063434
O 44.333 17.591 2.597 -0.014424 0.082464 0.17618